ieee9500/original_dss/UnbalancedLoads.dss
! ----------------------------------------------------------------
! UNBalanced Load Case
!-----------------------------------------------------------------
!
!  Each load is defined as a 1-phase 120V load
!
New Load.138236B0a     phases=1 Bus1=SX2673305B.1 kV=.120 Status=variable Model=5 Conn=wye kW= 0.696180467009544    pf = 0.97 Vminpu = 0.88 
New Load.138236B0b     phases=1 Bus1=SX2673305B.2 kV=.120 Status=variable Model=5 Conn=wye kW= 3.19381953299046     pf = 0.97 Vminpu = 0.88 
New Load.138237B0a     phases=1 Bus1=SX3048196B.1 kV=.120 Status=variable Model=5 Conn=wye kW= 2.30339207649231     pf = 0.97 Vminpu = 0.88 
New Load.138237B0b     phases=1 Bus1=SX3048196B.2 kV=.120 Status=variable Model=5 Conn=wye kW= 3.53660792350769     pf = 0.97 Vminpu = 0.88 
New Load.138258C0a     phases=1 Bus1=SX2991911C.1 kV=.120 Status=variable Model=5 Conn=wye kW= 0.932027059793472    pf = 0.97 Vminpu = 0.88 
New Load.138258C0b     phases=1 Bus1=SX2991911C.2 kV=.120 Status=variable Model=5 Conn=wye kW= 5.16797294020653     pf = 0.97 Vminpu = 0.88 
New Load.138259C0a     phases=1 Bus1=SX2973158C.1 kV=.120 Status=variable Model=5 Conn=wye kW= 0.616065526008606    pf = 0.97 Vminpu = 0.88 
New Load.138259C0b     phases=1 Bus1=SX2973158C.2 kV=.120 Status=variable Model=5 Conn=wye kW= 5.48393447399139     pf = 0.97 Vminpu = 0.88 
New Load.138260A0a     phases=1 Bus1=SX3048208A.1 kV=.120 Status=variable Model=5 Conn=wye kW= 1.45716053724289     pf = 0.97 Vminpu = 0.88 
New Load.138260A0b     phases=1 Bus1=SX3048208A.2 kV=.120 Status=variable Model=5 Conn=wye kW= 3.86283946275711     pf = 0.97 Vminpu = 0.88 
New Load.138262A0a     phases=1 Bus1=SX3029502A.1 kV=.120 Status=variable Model=5 Conn=wye kW= 11.3558540940285     pf = 0.97 Vminpu = 0.88 
New Load.138262A0b     phases=1 Bus1=SX3029502A.2 kV=.120 Status=variable Model=5 Conn=wye kW= 6.38414590597153     pf = 0.97 Vminpu = 0.88 
New Load.138264B0a     phases=1 Bus1=SX3104125B.1 kV=.120 Status=variable Model=5 Conn=wye kW= 0.721058705449104    pf = 0.97 Vminpu = 0.88 
New Load.138264B0b     phases=1 Bus1=SX3104125B.2 kV=.120 Status=variable Model=5 Conn=wye kW= 9.0089412945509      pf = 0.97 Vminpu = 0.88 
New Load.138265A0a     phases=1 Bus1=SX3160107A.1 kV=.120 Status=variable Model=5 Conn=wye kW= 5.42583449840546     pf = 0.97 Vminpu = 0.88 
New Load.138265A0b     phases=1 Bus1=SX3160107A.2 kV=.120 Status=variable Model=5 Conn=wye kW= 3.44416550159454     pf = 0.97 Vminpu = 0.88 
New Load.138294B0a     phases=1 Bus1=SX2785516B.1 kV=.120 Status=variable Model=5 Conn=wye kW= 0.979905409812927    pf = 0.97 Vminpu = 0.88 
New Load.138294B0b     phases=1 Bus1=SX2785516B.2 kV=.120 Status=variable Model=5 Conn=wye kW= 4.86009459018707     pf = 0.97 Vminpu = 0.88 
New Load.138313A0a     phases=1 Bus1=SX3141400A.1 kV=.120 Status=variable Model=5 Conn=wye kW= 3.3028557240963      pf = 0.97 Vminpu = 0.88 
New Load.138313A0b     phases=1 Bus1=SX3141400A.2 kV=.120 Status=variable Model=5 Conn=wye kW= 0.247144275903702    pf = 0.97 Vminpu = 0.88 
New Load.138342C0a     phases=1 Bus1=SX2897775C.1 kV=.120 Status=variable Model=5 Conn=wye kW= 5.46709477722645     pf = 0.97 Vminpu = 0.88 
New Load.138342C0b     phases=1 Bus1=SX2897775C.2 kV=.120 Status=variable Model=5 Conn=wye kW= 4.70290522277355     pf = 0.97 Vminpu = 0.88 
New Load.138343C0a     phases=1 Bus1=SX3010565C.1 kV=.120 Status=variable Model=5 Conn=wye kW= 1.90731858491898     pf = 0.97 Vminpu = 0.88 
New Load.138343C0b     phases=1 Bus1=SX3010565C.2 kV=.120 Status=variable Model=5 Conn=wye kW= 2.16268141508102     pf = 0.97 Vminpu = 0.88 
New Load.138346C0a     phases=1 Bus1=SX2916609C.1 kV=.120 Status=variable Model=5 Conn=wye kW= 0.640997141599655    pf = 0.97 Vminpu = 0.88 
New Load.138346C0b     phases=1 Bus1=SX2916609C.2 kV=.120 Status=variable Model=5 Conn=wye kW= 5.45900285840034     pf = 0.97 Vminpu = 0.88 
New Load.138371C0a     phases=1 Bus1=SX2879073C.1 kV=.120 Status=variable Model=5 Conn=wye kW= 5.15049561262131     pf = 0.97 Vminpu = 0.88 
New Load.138371C0b     phases=1 Bus1=SX2879073C.2 kV=.120 Status=variable Model=5 Conn=wye kW= 0.949504387378693    pf = 0.97 Vminpu = 0.88 
New Load.138372C0a     phases=1 Bus1=SX3104126C.1 kV=.120 Status=variable Model=5 Conn=wye kW= 3.53355606496334     pf = 0.97 Vminpu = 0.88 
New Load.138372C0b     phases=1 Bus1=SX3104126C.2 kV=.120 Status=variable Model=5 Conn=wye kW= 0.536443935036659    pf = 0.97 Vminpu = 0.88 
New Load.138373C0a     phases=1 Bus1=SX3029503C.1 kV=.120 Status=variable Model=5 Conn=wye kW= 3.10627183914185     pf = 0.97 Vminpu = 0.88 
New Load.138373C0b     phases=1 Bus1=SX3029503C.2 kV=.120 Status=variable Model=5 Conn=wye kW= 2.99372816085815     pf = 0.97 Vminpu = 0.88 
New Load.138374C0a     phases=1 Bus1=SX2691950C.1 kV=.120 Status=variable Model=5 Conn=wye kW= 1.3819062012434      pf = 0.97 Vminpu = 0.88 
New Load.138374C0b     phases=1 Bus1=SX2691950C.2 kV=.120 Status=variable Model=5 Conn=wye kW= 8.7880937987566      pf = 0.97 Vminpu = 0.88 
New Load.138379C0a     phases=1 Bus1=SX2691951C.1 kV=.120 Status=variable Model=5 Conn=wye kW= 5.53433520913124     pf = 0.97 Vminpu = 0.88 
New Load.138379C0b     phases=1 Bus1=SX2691951C.2 kV=.120 Status=variable Model=5 Conn=wye kW= 4.63566479086876     pf = 0.97 Vminpu = 0.88 
New Load.138380C0a     phases=1 Bus1=SX2879076C.1 kV=.120 Status=variable Model=5 Conn=wye kW= 2.61281781375408     pf = 0.97 Vminpu = 0.88 
New Load.138380C0b     phases=1 Bus1=SX2879076C.2 kV=.120 Status=variable Model=5 Conn=wye kW= 1.45718218624592     pf = 0.97 Vminpu = 0.88 
New Load.138404C0a     phases=1 Bus1=SX2841630C.1 kV=.120 Status=variable Model=5 Conn=wye kW= 8.31935176134109     pf = 0.97 Vminpu = 0.88 
New Load.138404C0b     phases=1 Bus1=SX2841630C.2 kV=.120 Status=variable Model=5 Conn=wye kW= 1.85064823865891     pf = 0.97 Vminpu = 0.88 
New Load.138405C0a     phases=1 Bus1=SX2841629C.1 kV=.120 Status=variable Model=5 Conn=wye kW= 8.68428897500038     pf = 0.97 Vminpu = 0.88 
New Load.138405C0b     phases=1 Bus1=SX2841629C.2 kV=.120 Status=variable Model=5 Conn=wye kW= 6.57571102499962     pf = 0.97 Vminpu = 0.88 
New Load.138412C0a     phases=1 Bus1=SX2785523C.1 kV=.120 Status=variable Model=5 Conn=wye kW= 2.53578065633774     pf = 0.97 Vminpu = 0.88 
New Load.138412C0b     phases=1 Bus1=SX2785523C.2 kV=.120 Status=variable Model=5 Conn=wye kW= 3.56421934366226     pf = 0.97 Vminpu = 0.88 
New Load.138413C0a     phases=1 Bus1=SX3216347C.1 kV=.120 Status=variable Model=5 Conn=wye kW= 4.66030400395393     pf = 0.97 Vminpu = 0.88 
New Load.138413C0b     phases=1 Bus1=SX3216347C.2 kV=.120 Status=variable Model=5 Conn=wye kW= 1.43969599604607     pf = 0.97 Vminpu = 0.88 
New Load.138416C0a     phases=1 Bus1=SX3141388C.1 kV=.120 Status=variable Model=5 Conn=wye kW= 2.00353498935699     pf = 0.97 Vminpu = 0.88 
New Load.138416C0b     phases=1 Bus1=SX3141388C.2 kV=.120 Status=variable Model=5 Conn=wye kW= 2.06646501064301     pf = 0.97 Vminpu = 0.88 
New Load.138464C0a     phases=1 Bus1=SX3066801C.1 kV=.120 Status=variable Model=5 Conn=wye kW= 2.74935719311237     pf = 0.97 Vminpu = 0.88 
New Load.138464C0b     phases=1 Bus1=SX3066801C.2 kV=.120 Status=variable Model=5 Conn=wye kW= 1.32064280688763     pf = 0.97 Vminpu = 0.88 
New Load.138465C0a     phases=1 Bus1=SX2879055C.1 kV=.120 Status=variable Model=5 Conn=wye kW= 3.90297761797905     pf = 0.97 Vminpu = 0.88 
New Load.138465C0b     phases=1 Bus1=SX2879055C.2 kV=.120 Status=variable Model=5 Conn=wye kW= 0.16702238202095     pf = 0.97 Vminpu = 0.88 
New Load.138466C0a     phases=1 Bus1=SX2973144C.1 kV=.120 Status=variable Model=5 Conn=wye kW= 8.10096781075001     pf = 0.97 Vminpu = 0.88 
New Load.138466C0b     phases=1 Bus1=SX2973144C.2 kV=.120 Status=variable Model=5 Conn=wye kW= 2.06903218924999     pf = 0.97 Vminpu = 0.88 
New Load.138469C0a     phases=1 Bus1=SX2785518C.1 kV=.120 Status=variable Model=5 Conn=wye kW= 4.01072108745575     pf = 0.97 Vminpu = 0.88 
New Load.138469C0b     phases=1 Bus1=SX2785518C.2 kV=.120 Status=variable Model=5 Conn=wye kW= 2.08927891254425     pf = 0.97 Vminpu = 0.88 
New Load.138470C0a     phases=1 Bus1=SX2766717C.1 kV=.120 Status=variable Model=5 Conn=wye kW= 2.60895431101322     pf = 0.97 Vminpu = 0.88 
New Load.138470C0b     phases=1 Bus1=SX2766717C.2 kV=.120 Status=variable Model=5 Conn=wye kW= 1.46104568898678     pf = 0.97 Vminpu = 0.88 
New Load.138472C0a     phases=1 Bus1=SX2673309C.1 kV=.120 Status=variable Model=5 Conn=wye kW= 9.44700153708458     pf = 0.97 Vminpu = 0.88 
New Load.138472C0b     phases=1 Bus1=SX2673309C.2 kV=.120 Status=variable Model=5 Conn=wye kW= 0.72299846291542     pf = 0.97 Vminpu = 0.88 
New Load.138560A0a     phases=1 Bus1=SX3104113A.1 kV=.120 Status=variable Model=5 Conn=wye kW= 4.76630929410458     pf = 0.97 Vminpu = 0.88 
New Load.138560A0b     phases=1 Bus1=SX3104113A.2 kV=.120 Status=variable Model=5 Conn=wye kW= 4.10369070589542     pf = 0.97 Vminpu = 0.88 
New Load.138561A0a     phases=1 Bus1=SX3104121A.1 kV=.120 Status=variable Model=5 Conn=wye kW= 6.50350156784058     pf = 0.97 Vminpu = 0.88 
New Load.138561A0b     phases=1 Bus1=SX3104121A.2 kV=.120 Status=variable Model=5 Conn=wye kW= 2.36649843215942     pf = 0.97 Vminpu = 0.88 
New Load.138562A0a     phases=1 Bus1=SX2673310A.1 kV=.120 Status=variable Model=5 Conn=wye kW= 6.82647125542164     pf = 0.97 Vminpu = 0.88 
New Load.138562A0b     phases=1 Bus1=SX2673310A.2 kV=.120 Status=variable Model=5 Conn=wye kW= 2.04352874457836     pf = 0.97 Vminpu = 0.88 
New Load.138563A0a     phases=1 Bus1=SX2916627A.1 kV=.120 Status=variable Model=5 Conn=wye kW= 6.43954766631126     pf = 0.97 Vminpu = 0.88 
New Load.138563A0b     phases=1 Bus1=SX2916627A.2 kV=.120 Status=variable Model=5 Conn=wye kW= 2.43045233368874     pf = 0.97 Vminpu = 0.88 
New Load.138564A0a     phases=1 Bus1=SX2804283A.1 kV=.120 Status=variable Model=5 Conn=wye kW= 7.51748701274395     pf = 0.97 Vminpu = 0.88 
New Load.138564A0b     phases=1 Bus1=SX2804283A.2 kV=.120 Status=variable Model=5 Conn=wye kW= 1.35251298725605     pf = 0.97 Vminpu = 0.88 
New Load.138565A0a     phases=1 Bus1=SX3104122A.1 kV=.120 Status=variable Model=5 Conn=wye kW= 8.4127882361412      pf = 0.97 Vminpu = 0.88 
New Load.138565A0b     phases=1 Bus1=SX3104122A.2 kV=.120 Status=variable Model=5 Conn=wye kW= 0.457211763858796    pf = 0.97 Vminpu = 0.88 
New Load.138566A0a     phases=1 Bus1=SX2785519A.1 kV=.120 Status=variable Model=5 Conn=wye kW= 8.3076517778635      pf = 0.97 Vminpu = 0.88 
New Load.138566A0b     phases=1 Bus1=SX2785519A.2 kV=.120 Status=variable Model=5 Conn=wye kW= 0.562348222136498    pf = 0.97 Vminpu = 0.88 
New Load.138567A0a     phases=1 Bus1=SX2748129A.1 kV=.120 Status=variable Model=5 Conn=wye kW= 0.489392793178558    pf = 0.97 Vminpu = 0.88 
New Load.138567A0b     phases=1 Bus1=SX2748129A.2 kV=.120 Status=variable Model=5 Conn=wye kW= 12.8106072068214     pf = 0.97 Vminpu = 0.88 
New Load.138569A0a     phases=1 Bus1=SX2973151A.1 kV=.120 Status=variable Model=5 Conn=wye kW= 3.8825451207161      pf = 0.97 Vminpu = 0.88 
New Load.138569A0b     phases=1 Bus1=SX2973151A.2 kV=.120 Status=variable Model=5 Conn=wye kW= 1.43745487928391     pf = 0.97 Vminpu = 0.88 
New Load.138570A0a     phases=1 Bus1=SX2748146A.1 kV=.120 Status=variable Model=5 Conn=wye kW= 0.57196382522583     pf = 0.97 Vminpu = 0.88 
New Load.138570A0b     phases=1 Bus1=SX2748146A.2 kV=.120 Status=variable Model=5 Conn=wye kW= 4.74803617477417     pf = 0.97 Vminpu = 0.88 
New Load.138571A0a     phases=1 Bus1=SX2991913A.1 kV=.120 Status=variable Model=5 Conn=wye kW= 1.55185956716537     pf = 0.97 Vminpu = 0.88 
New Load.138571A0b     phases=1 Bus1=SX2991913A.2 kV=.120 Status=variable Model=5 Conn=wye kW= 3.76814043283463     pf = 0.97 Vminpu = 0.88 
New Load.138573A0a     phases=1 Bus1=SX3235253A.1 kV=.120 Status=variable Model=5 Conn=wye kW= 6.42777684092522     pf = 0.97 Vminpu = 0.88 
New Load.138573A0b     phases=1 Bus1=SX3235253A.2 kV=.120 Status=variable Model=5 Conn=wye kW= 2.44222315907478     pf = 0.97 Vminpu = 0.88 
New Load.138574A0a     phases=1 Bus1=SX2991907A.1 kV=.120 Status=variable Model=5 Conn=wye kW= 5.82470866858959     pf = 0.97 Vminpu = 0.88 
New Load.138574A0b     phases=1 Bus1=SX2991907A.2 kV=.120 Status=variable Model=5 Conn=wye kW= 3.04529133141041     pf = 0.97 Vminpu = 0.88 
New Load.138581A0a     phases=1 Bus1=SX2879064A.1 kV=.120 Status=variable Model=5 Conn=wye kW= 5.37039572954178     pf = 0.97 Vminpu = 0.88 
New Load.138581A0b     phases=1 Bus1=SX2879064A.2 kV=.120 Status=variable Model=5 Conn=wye kW= 3.49960427045822     pf = 0.97 Vminpu = 0.88 
New Load.138585C0a     phases=1 Bus1=SX3197637C.1 kV=.120 Status=variable Model=5 Conn=wye kW= 0.863561273217201    pf = 0.97 Vminpu = 0.88 
New Load.138585C0b     phases=1 Bus1=SX3197637C.2 kV=.120 Status=variable Model=5 Conn=wye kW= 3.2064387267828      pf = 0.97 Vminpu = 0.88 
New Load.138586C0a     phases=1 Bus1=SX2860487C.1 kV=.120 Status=variable Model=5 Conn=wye kW= 5.91896427869797     pf = 0.97 Vminpu = 0.88 
New Load.138586C0b     phases=1 Bus1=SX2860487C.2 kV=.120 Status=variable Model=5 Conn=wye kW= 0.181035721302033    pf = 0.97 Vminpu = 0.88 
New Load.138641C0a     phases=1 Bus1=SX2841638C.1 kV=.120 Status=variable Model=5 Conn=wye kW= 0.905626183748245    pf = 0.97 Vminpu = 0.88 
New Load.138641C0b     phases=1 Bus1=SX2841638C.2 kV=.120 Status=variable Model=5 Conn=wye kW= 5.19437381625175     pf = 0.97 Vminpu = 0.88 
New Load.138642A0a     phases=1 Bus1=SX3235256A.1 kV=.120 Status=variable Model=5 Conn=wye kW= 3.69108180999756     pf = 0.97 Vminpu = 0.88 
New Load.138642A0b     phases=1 Bus1=SX3235256A.2 kV=.120 Status=variable Model=5 Conn=wye kW= 1.62891819000244     pf = 0.97 Vminpu = 0.88 
New Load.138644A0a     phases=1 Bus1=SX3197630A.1 kV=.120 Status=variable Model=5 Conn=wye kW= 4.48774401962757     pf = 0.97 Vminpu = 0.88 
New Load.138644A0b     phases=1 Bus1=SX3197630A.2 kV=.120 Status=variable Model=5 Conn=wye kW= 4.38225598037243     pf = 0.97 Vminpu = 0.88 
New Load.138645B0a     phases=1 Bus1=SX3104120B.1 kV=.120 Status=variable Model=5 Conn=wye kW= 3.86900570869446     pf = 0.97 Vminpu = 0.88 
New Load.138645B0b     phases=1 Bus1=SX3104120B.2 kV=.120 Status=variable Model=5 Conn=wye kW= 1.97099429130554     pf = 0.97 Vminpu = 0.88 
New Load.138646A0a     phases=1 Bus1=SX2804251A.1 kV=.120 Status=variable Model=5 Conn=wye kW= 2.13520937860012     pf = 0.97 Vminpu = 0.88 
New Load.138646A0b     phases=1 Bus1=SX2804251A.2 kV=.120 Status=variable Model=5 Conn=wye kW= 1.41479062139988     pf = 0.97 Vminpu = 0.88 
New Load.138647C0a     phases=1 Bus1=SX3254210C.1 kV=.120 Status=variable Model=5 Conn=wye kW= 6.07667944431305     pf = 0.97 Vminpu = 0.88 
New Load.138647C0b     phases=1 Bus1=SX3254210C.2 kV=.120 Status=variable Model=5 Conn=wye kW= 2.33205556869507E-02 pf = 0.97 Vminpu = 0.88 
New Load.138649A0a     phases=1 Bus1=SX3048206A.1 kV=.120 Status=variable Model=5 Conn=wye kW= 7.67008161604404     pf = 0.97 Vminpu = 0.88 
New Load.138649A0b     phases=1 Bus1=SX3048206A.2 kV=.120 Status=variable Model=5 Conn=wye kW= 1.19991838395596     pf = 0.97 Vminpu = 0.88 
New Load.138650C0a     phases=1 Bus1=SX2710510C.1 kV=.120 Status=variable Model=5 Conn=wye kW= 0.156969414949417    pf = 0.97 Vminpu = 0.88 
New Load.138650C0b     phases=1 Bus1=SX2710510C.2 kV=.120 Status=variable Model=5 Conn=wye kW= 3.91303058505058     pf = 0.97 Vminpu = 0.88 
New Load.138651C0a     phases=1 Bus1=SX3197628C.1 kV=.120 Status=variable Model=5 Conn=wye kW= 3.72313893377781     pf = 0.97 Vminpu = 0.88 
New Load.138651C0b     phases=1 Bus1=SX3197628C.2 kV=.120 Status=variable Model=5 Conn=wye kW= 6.44686106622219     pf = 0.97 Vminpu = 0.88 
New Load.138652C0a     phases=1 Bus1=SX2766718C.1 kV=.120 Status=variable Model=5 Conn=wye kW= 4.17881947517395     pf = 0.97 Vminpu = 0.88 
New Load.138652C0b     phases=1 Bus1=SX2766718C.2 kV=.120 Status=variable Model=5 Conn=wye kW= 11.081180524826      pf = 0.97 Vminpu = 0.88 
New Load.138655A0a     phases=1 Bus1=SX3010556A.1 kV=.120 Status=variable Model=5 Conn=wye kW= 3.01712541341782     pf = 0.97 Vminpu = 0.88 
New Load.138655A0b     phases=1 Bus1=SX3010556A.2 kV=.120 Status=variable Model=5 Conn=wye kW= 2.30287458658218     pf = 0.97 Vminpu = 0.88 
New Load.138679A0a     phases=1 Bus1=SX2710520A.1 kV=.120 Status=variable Model=5 Conn=wye kW= 3.05977079868317     pf = 0.97 Vminpu = 0.88 
New Load.138679A0b     phases=1 Bus1=SX2710520A.2 kV=.120 Status=variable Model=5 Conn=wye kW= 2.26022920131683     pf = 0.97 Vminpu = 0.88 
New Load.138680A0a     phases=1 Bus1=SX2710521A.1 kV=.120 Status=variable Model=5 Conn=wye kW= 0.664908358454704    pf = 0.97 Vminpu = 0.88 
New Load.138680A0b     phases=1 Bus1=SX2710521A.2 kV=.120 Status=variable Model=5 Conn=wye kW= 8.20509164154529     pf = 0.97 Vminpu = 0.88 
New Load.138684A0a     phases=1 Bus1=SX3085396A.1 kV=.120 Status=variable Model=5 Conn=wye kW= 3.91537283182144     pf = 0.97 Vminpu = 0.88 
New Load.138684A0b     phases=1 Bus1=SX3085396A.2 kV=.120 Status=variable Model=5 Conn=wye kW= 4.95462716817856     pf = 0.97 Vminpu = 0.88 
New Load.138685A0a     phases=1 Bus1=SX3122813A.1 kV=.120 Status=variable Model=5 Conn=wye kW= 2.29734759092331     pf = 0.97 Vminpu = 0.88 
New Load.138685A0b     phases=1 Bus1=SX3122813A.2 kV=.120 Status=variable Model=5 Conn=wye kW= 3.02265240907669     pf = 0.97 Vminpu = 0.88 
New Load.138716C0a     phases=1 Bus1=SX3254219C.1 kV=.120 Status=variable Model=5 Conn=wye kW= 1.3092828977108      pf = 0.97 Vminpu = 0.88 
New Load.138716C0b     phases=1 Bus1=SX3254219C.2 kV=.120 Status=variable Model=5 Conn=wye kW= 8.8607171022892      pf = 0.97 Vminpu = 0.88 
New Load.138717C0a     phases=1 Bus1=SX3254220C.1 kV=.120 Status=variable Model=5 Conn=wye kW= 2.24819816172123     pf = 0.97 Vminpu = 0.88 
New Load.138717C0b     phases=1 Bus1=SX3254220C.2 kV=.120 Status=variable Model=5 Conn=wye kW= 7.92180183827877     pf = 0.97 Vminpu = 0.88 
New Load.138718C0a     phases=1 Bus1=SX3104134C.1 kV=.120 Status=variable Model=5 Conn=wye kW= 8.46614170074463     pf = 0.97 Vminpu = 0.88 
New Load.138718C0b     phases=1 Bus1=SX3104134C.2 kV=.120 Status=variable Model=5 Conn=wye kW= 1.70385829925537     pf = 0.97 Vminpu = 0.88 
New Load.138719A0a     phases=1 Bus1=SX2860490A.1 kV=.120 Status=variable Model=5 Conn=wye kW= 0.183259337544441    pf = 0.97 Vminpu = 0.88 
New Load.138719A0b     phases=1 Bus1=SX2860490A.2 kV=.120 Status=variable Model=5 Conn=wye kW= 8.68674066245556     pf = 0.97 Vminpu = 0.88 
New Load.138720A0a     phases=1 Bus1=SX3254218A.1 kV=.120 Status=variable Model=5 Conn=wye kW= 2.89486701369286     pf = 0.97 Vminpu = 0.88 
New Load.138720A0b     phases=1 Bus1=SX3254218A.2 kV=.120 Status=variable Model=5 Conn=wye kW= 5.97513298630714     pf = 0.97 Vminpu = 0.88 
New Load.138751B0a     phases=1 Bus1=SX3066818B.1 kV=.120 Status=variable Model=5 Conn=wye kW= 9.59230809271336     pf = 0.97 Vminpu = 0.88 
New Load.138751B0b     phases=1 Bus1=SX3066818B.2 kV=.120 Status=variable Model=5 Conn=wye kW= 0.137691907286644    pf = 0.97 Vminpu = 0.88 
New Load.138752B0a     phases=1 Bus1=SX2785528B.1 kV=.120 Status=variable Model=5 Conn=wye kW= 4.17620378494263     pf = 0.97 Vminpu = 0.88 
New Load.138752B0b     phases=1 Bus1=SX2785528B.2 kV=.120 Status=variable Model=5 Conn=wye kW= 1.66379621505737     pf = 0.97 Vminpu = 0.88 
New Load.138753B0a     phases=1 Bus1=SX2748130B.1 kV=.120 Status=variable Model=5 Conn=wye kW= 0.89254738509655     pf = 0.97 Vminpu = 0.88 
New Load.138753B0b     phases=1 Bus1=SX2748130B.2 kV=.120 Status=variable Model=5 Conn=wye kW= 8.83745261490345     pf = 0.97 Vminpu = 0.88 
New Load.138754B0a     phases=1 Bus1=SX3254212B.1 kV=.120 Status=variable Model=5 Conn=wye kW= 3.00803367257118     pf = 0.97 Vminpu = 0.88 
New Load.138754B0b     phases=1 Bus1=SX3254212B.2 kV=.120 Status=variable Model=5 Conn=wye kW= 11.5819663274288     pf = 0.97 Vminpu = 0.88 
New Load.138755B0a     phases=1 Bus1=SX2785520B.1 kV=.120 Status=variable Model=5 Conn=wye kW= 1.23461380779743     pf = 0.97 Vminpu = 0.88 
New Load.138755B0b     phases=1 Bus1=SX2785520B.2 kV=.120 Status=variable Model=5 Conn=wye kW= 2.65538619220257     pf = 0.97 Vminpu = 0.88 
New Load.138769A0a     phases=1 Bus1=SX2729411A.1 kV=.120 Status=variable Model=5 Conn=wye kW= 0.204705214500427    pf = 0.97 Vminpu = 0.88 
New Load.138769A0b     phases=1 Bus1=SX2729411A.2 kV=.120 Status=variable Model=5 Conn=wye kW= 3.34529478549957     pf = 0.97 Vminpu = 0.88 
New Load.138770A0a     phases=1 Bus1=SX2897781A.1 kV=.120 Status=variable Model=5 Conn=wye kW= 1.07414735853672     pf = 0.97 Vminpu = 0.88 
New Load.138770A0b     phases=1 Bus1=SX2897781A.2 kV=.120 Status=variable Model=5 Conn=wye kW= 2.47585264146328     pf = 0.97 Vminpu = 0.88 
New Load.138771A0a     phases=1 Bus1=SX3197644A.1 kV=.120 Status=variable Model=5 Conn=wye kW= 0.574874138832092    pf = 0.97 Vminpu = 0.88 
New Load.138771A0b     phases=1 Bus1=SX3197644A.2 kV=.120 Status=variable Model=5 Conn=wye kW= 4.74512586116791     pf = 0.97 Vminpu = 0.88 
New Load.138776C0a     phases=1 Bus1=SX3010566C.1 kV=.120 Status=variable Model=5 Conn=wye kW= 1.57651792168617     pf = 0.97 Vminpu = 0.88 
New Load.138776C0b     phases=1 Bus1=SX3010566C.2 kV=.120 Status=variable Model=5 Conn=wye kW= 4.52348207831383     pf = 0.97 Vminpu = 0.88 
New Load.138796B0a     phases=1 Bus1=SX3236011B.1 kV=.120 Status=variable Model=5 Conn=wye kW= 3.17862752914429     pf = 0.97 Vminpu = 0.88 
New Load.138796B0b     phases=1 Bus1=SX3236011B.2 kV=.120 Status=variable Model=5 Conn=wye kW= 2.66137247085571     pf = 0.97 Vminpu = 0.88 
New Load.138797B0a     phases=1 Bus1=SX3198358B.1 kV=.120 Status=variable Model=5 Conn=wye kW= 2.38206663906574     pf = 0.97 Vminpu = 0.88 
New Load.138797B0b     phases=1 Bus1=SX3198358B.2 kV=.120 Status=variable Model=5 Conn=wye kW= 12.2079333609343     pf = 0.97 Vminpu = 0.88 
New Load.138798B0a     phases=1 Bus1=SX3104859B.1 kV=.120 Status=variable Model=5 Conn=wye kW= 4.75561747550964     pf = 0.97 Vminpu = 0.88 
New Load.138798B0b     phases=1 Bus1=SX3104859B.2 kV=.120 Status=variable Model=5 Conn=wye kW= 1.08438252449036     pf = 0.97 Vminpu = 0.88 
New Load.157715B0a     phases=1 Bus1=SX2936275B.1 kV=.120 Status=variable Model=5 Conn=wye kW= 2.04099854767323     pf = 0.97 Vminpu = 0.88 
New Load.157715B0b     phases=1 Bus1=SX2936275B.2 kV=.120 Status=variable Model=5 Conn=wye kW= 1.84900145232677     pf = 0.97 Vminpu = 0.88 
New Load.157716B0a     phases=1 Bus1=SX3179674B.1 kV=.120 Status=variable Model=5 Conn=wye kW= 8.17862984657288     pf = 0.97 Vminpu = 0.88 
New Load.157716B0b     phases=1 Bus1=SX3179674B.2 kV=.120 Status=variable Model=5 Conn=wye kW= 1.55137015342712     pf = 0.97 Vminpu = 0.88 
New Load.157717B0a     phases=1 Bus1=SX2748840B.1 kV=.120 Status=variable Model=5 Conn=wye kW= 1.39889852046967     pf = 0.97 Vminpu = 0.88 
New Load.157717B0b     phases=1 Bus1=SX2748840B.2 kV=.120 Status=variable Model=5 Conn=wye kW= 4.44110147953033     pf = 0.97 Vminpu = 0.88 
New Load.157718B0a     phases=1 Bus1=SX3142099B.1 kV=.120 Status=variable Model=5 Conn=wye kW= 9.14856792569161     pf = 0.97 Vminpu = 0.88 
New Load.157718B0b     phases=1 Bus1=SX3142099B.2 kV=.120 Status=variable Model=5 Conn=wye kW= 0.581432074308395    pf = 0.97 Vminpu = 0.88 
New Load.207286C0a     phases=1 Bus1=SX3011298C.1 kV=.120 Status=variable Model=5 Conn=wye kW= 1.35406212985516     pf = 0.97 Vminpu = 0.88 
New Load.207286C0b     phases=1 Bus1=SX3011298C.2 kV=.120 Status=variable Model=5 Conn=wye kW= 2.71593787014484     pf = 0.97 Vminpu = 0.88 
New Load.207287B0a     phases=1 Bus1=SX2711234B.1 kV=.120 Status=variable Model=5 Conn=wye kW= 1.06192909479141     pf = 0.97 Vminpu = 0.88 
New Load.207287B0b     phases=1 Bus1=SX2711234B.2 kV=.120 Status=variable Model=5 Conn=wye kW= 8.66807090520859     pf = 0.97 Vminpu = 0.88 
New Load.207288B0a     phases=1 Bus1=SX3198355B.1 kV=.120 Status=variable Model=5 Conn=wye kW= 2.35699640452862     pf = 0.97 Vminpu = 0.88 
New Load.207288B0b     phases=1 Bus1=SX3198355B.2 kV=.120 Status=variable Model=5 Conn=wye kW= 1.53300359547138     pf = 0.97 Vminpu = 0.88 
New Load.207290A0a     phases=1 Bus1=SX2879773A.1 kV=.120 Status=variable Model=5 Conn=wye kW= 5.09814939618111     pf = 0.97 Vminpu = 0.88 
New Load.207290A0b     phases=1 Bus1=SX2879773A.2 kV=.120 Status=variable Model=5 Conn=wye kW= 3.77185060381889     pf = 0.97 Vminpu = 0.88 
New Load.207291C0a     phases=1 Bus1=SX2786274C.1 kV=.120 Status=variable Model=5 Conn=wye kW= 4.86335722982883     pf = 0.97 Vminpu = 0.88 
New Load.207291C0b     phases=1 Bus1=SX2786274C.2 kV=.120 Status=variable Model=5 Conn=wye kW= 5.30664277017117     pf = 0.97 Vminpu = 0.88 
New Load.207292C0a     phases=1 Bus1=SX3179682C.1 kV=.120 Status=variable Model=5 Conn=wye kW= 4.72984499931335     pf = 0.97 Vminpu = 0.88 
New Load.207292C0b     phases=1 Bus1=SX3179682C.2 kV=.120 Status=variable Model=5 Conn=wye kW= 1.37015500068665     pf = 0.97 Vminpu = 0.88 
New Load.218472A0a     phases=1 Bus1=SX2936270A.1 kV=.120 Status=variable Model=5 Conn=wye kW= 4.868102825284       pf = 0.97 Vminpu = 0.88 
New Load.218472A0b     phases=1 Bus1=SX2936270A.2 kV=.120 Status=variable Model=5 Conn=wye kW= 4.001897174716       pf = 0.97 Vminpu = 0.88 
New Load.218473A0a     phases=1 Bus1=SX3086078A.1 kV=.120 Status=variable Model=5 Conn=wye kW= 1.51733362078667     pf = 0.97 Vminpu = 0.88 
New Load.218473A0b     phases=1 Bus1=SX3086078A.2 kV=.120 Status=variable Model=5 Conn=wye kW= 7.35266637921333     pf = 0.97 Vminpu = 0.88 
New Load.218474A0a     phases=1 Bus1=SX3217056A.1 kV=.120 Status=variable Model=5 Conn=wye kW= 11.7821743142605     pf = 0.97 Vminpu = 0.88 
New Load.218474A0b     phases=1 Bus1=SX3217056A.2 kV=.120 Status=variable Model=5 Conn=wye kW= 5.95782568573952     pf = 0.97 Vminpu = 0.88 
New Load.218475A0a     phases=1 Bus1=SX3217057A.1 kV=.120 Status=variable Model=5 Conn=wye kW= 1.9275314450264      pf = 0.97 Vminpu = 0.88 
New Load.218475A0b     phases=1 Bus1=SX3217057A.2 kV=.120 Status=variable Model=5 Conn=wye kW= 1.6224685549736      pf = 0.97 Vminpu = 0.88 
New Load.223655C0a     phases=1 Bus1=SX2936268C.1 kV=.120 Status=variable Model=5 Conn=wye kW= 3.17055389285088     pf = 0.97 Vminpu = 0.88 
New Load.223655C0b     phases=1 Bus1=SX2936268C.2 kV=.120 Status=variable Model=5 Conn=wye kW= 2.92944610714912     pf = 0.97 Vminpu = 0.88 
New Load.223658A0a     phases=1 Bus1=SX2823592A.1 kV=.120 Status=variable Model=5 Conn=wye kW= 1.21636754393578     pf = 0.97 Vminpu = 0.88 
New Load.223658A0b     phases=1 Bus1=SX2823592A.2 kV=.120 Status=variable Model=5 Conn=wye kW= 0.553632456064224    pf = 0.97 Vminpu = 0.88 
New Load.223660C0a     phases=1 Bus1=SX3160863C.1 kV=.120 Status=variable Model=5 Conn=wye kW= 0.480949193239212    pf = 0.97 Vminpu = 0.88 
New Load.223660C0b     phases=1 Bus1=SX3160863C.2 kV=.120 Status=variable Model=5 Conn=wye kW= 5.61905080676079     pf = 0.97 Vminpu = 0.88 
New Load.223661C0a     phases=1 Bus1=SX2730108C.1 kV=.120 Status=variable Model=5 Conn=wye kW= 4.02298564910889     pf = 0.97 Vminpu = 0.88 
New Load.223661C0b     phases=1 Bus1=SX2730108C.2 kV=.120 Status=variable Model=5 Conn=wye kW= 2.07701435089111     pf = 0.97 Vminpu = 0.88 
New Load.223662C0a     phases=1 Bus1=SX2786204C.1 kV=.120 Status=variable Model=5 Conn=wye kW= 5.16334467053413     pf = 0.97 Vminpu = 0.88 
New Load.223662C0b     phases=1 Bus1=SX2786204C.2 kV=.120 Status=variable Model=5 Conn=wye kW= 10.0966553294659     pf = 0.97 Vminpu = 0.88 
New Load.223663C0a     phases=1 Bus1=SX2936216C.1 kV=.120 Status=variable Model=5 Conn=wye kW= 3.97553170561791     pf = 0.97 Vminpu = 0.88 
New Load.223663C0b     phases=1 Bus1=SX2936216C.2 kV=.120 Status=variable Model=5 Conn=wye kW= 9.44682943820951E-02 pf = 0.97 Vminpu = 0.88 
New Load.247036C0a     phases=1 Bus1=SX3029498C.1 kV=.120 Status=variable Model=5 Conn=wye kW= 0.911813089251518    pf = 0.97 Vminpu = 0.88 
New Load.247036C0b     phases=1 Bus1=SX3029498C.2 kV=.120 Status=variable Model=5 Conn=wye kW= 3.15818691074848     pf = 0.97 Vminpu = 0.88 
New Load.247056A0a     phases=1 Bus1=SX2991912A.1 kV=.120 Status=variable Model=5 Conn=wye kW= 2.29926190376282     pf = 0.97 Vminpu = 0.88 
New Load.247056A0b     phases=1 Bus1=SX2991912A.2 kV=.120 Status=variable Model=5 Conn=wye kW= 3.02073809623718     pf = 0.97 Vminpu = 0.88 
...


!New Loads for S2 New Neighborhood, assuming large homes with air conditioning, swimming pools, costco-size fridges, etc
!Large loads, lower power factor with rooftop PV to offset
New Load.2000402A0a phases=1 Bus1=SX2000402A.1 kV=.120 Status=variable Model=5 Conn=wye kW= 6.546303835511208    pf = 0.87 Vminpu = 0.88 
New Load.2000402A0b phases=1 Bus1=SX2000402A.2 kV=.120 Status=variable Model=5 Conn=wye kW= 4.700369616448879    pf = 0.87 Vminpu = 0.88 
New Load.2000403A0a phases=1 Bus1=SX2000403A.1 kV=.120 Status=variable Model=5 Conn=wye kW= 5.138708794193482    pf = 0.87 Vminpu = 0.88 
New Load.2000403A0b phases=1 Bus1=SX2000403A.2 kV=.120 Status=variable Model=5 Conn=wye kW= 7.423893890875923    pf = 0.87 Vminpu = 0.88 
New Load.2000404A0a phases=1 Bus1=SX2000404A.1 kV=.120 Status=variable Model=5 Conn=wye kW= 6.280734597341853    pf = 0.87 Vminpu = 0.88 
New Load.2000404A0b phases=1 Bus1=SX2000404A.2 kV=.120 Status=variable Model=5 Conn=wye kW= 3.428793094879453    pf = 0.87 Vminpu = 0.88 
New Load.2000405A0a phases=1 Bus1=SX2000405A.1 kV=.120 Status=variable Model=5 Conn=wye kW= 6.546303835511208    pf = 0.87 Vminpu = 0.88 
New Load.2000405A0b phases=1 Bus1=SX2000405A.2 kV=.120 Status=variable Model=5 Conn=wye kW= 8.380503098592806    pf = 0.87 Vminpu = 0.88 
New Load.2000406A0a phases=1 Bus1=SX2000406A.1 kV=.120 Status=variable Model=5 Conn=wye kW= 9.347802478934985    pf = 0.87 Vminpu = 0.88 
New Load.2000406A0b phases=1 Bus1=SX2000406A.2 kV=.120 Status=variable Model=5 Conn=wye kW= 3.249870373984534    pf = 0.87 Vminpu = 0.88 
New Load.2000407A0a phases=1 Bus1=SX2000407A.1 kV=.120 Status=variable Model=5 Conn=wye kW= 4.429870309857273    pf = 0.87 Vminpu = 0.88 
New Load.2000407A0b phases=1 Bus1=SX2000407A.2 kV=.120 Status=variable Model=5 Conn=wye kW= 7.487938984234373    pf = 0.87 Vminpu = 0.88 
New Load.2000408A0a phases=1 Bus1=SX2000408A.1 kV=.120 Status=variable Model=5 Conn=wye kW= 6.546303835511208    pf = 0.87 Vminpu = 0.88 
New Load.2000408A0b phases=1 Bus1=SX2000408A.2 kV=.120 Status=variable Model=5 Conn=wye kW= 5.894234287549382    pf = 0.87 Vminpu = 0.88 
New Load.2000409A0a phases=1 Bus1=SX2000409A.1 kV=.120 Status=variable Model=5 Conn=wye kW= 4.493840987398212    pf = 0.87 Vminpu = 0.88 
New Load.2000409A0b phases=1 Bus1=SX2000409A.2 kV=.120 Status=variable Model=5 Conn=wye kW= 8.487338975392829    pf = 0.87 Vminpu = 0.88 
New Load.2000410A0a phases=1 Bus1=SX2000410A.1 kV=.120 Status=variable Model=5 Conn=wye kW= 9.174853198583879    pf = 0.87 Vminpu = 0.88 
New Load.2000410A0b phases=1 Bus1=SX2000410A.2 kV=.120 Status=variable Model=5 Conn=wye kW= 5.316873438657922    pf = 0.87 Vminpu = 0.88 
New Load.2000411A0a phases=1 Bus1=SX2000411A.1 kV=.120 Status=variable Model=5 Conn=wye kW= 6.493573298723476    pf = 0.87 Vminpu = 0.88 
New Load.2000411A0b phases=1 Bus1=SX2000411A.2 kV=.120 Status=variable Model=5 Conn=wye kW= 3.487953819759328    pf = 0.87 Vminpu = 0.88 
New Load.2000412A0a phases=1 Bus1=SX2000412A.1 kV=.120 Status=variable Model=5 Conn=wye kW= 10.43759328752389    pf = 0.87 Vminpu = 0.88 
New Load.2000412A0b phases=1 Bus1=SX2000412A.2 kV=.120 Status=variable Model=5 Conn=wye kW= 9.179588473982392    pf = 0.87 Vminpu = 0.88 
New Load.2000413A0a phases=1 Bus1=SX2000413A.1 kV=.120 Status=variable Model=5 Conn=wye kW= 6.348793728498429    pf = 0.87 Vminpu = 0.88 
New Load.2000413A0b phases=1 Bus1=SX2000413A.2 kV=.120 Status=variable Model=5 Conn=wye kW= 4.283740934820938    pf = 0.87 Vminpu = 0.88 
New Load.2000414A0a phases=1 Bus1=SX2000414A.1 kV=.120 Status=variable Model=5 Conn=wye kW= 3.348990303894293    pf = 0.87 Vminpu = 0.88 
New Load.2000414A0b phases=1 Bus1=SX2000414A.2 kV=.120 Status=variable Model=5 Conn=wye kW= 7.238947289347328    pf = 0.87 Vminpu = 0.88 
New Load.2000415A0a phases=1 Bus1=SX2000415A.1 kV=.120 Status=variable Model=5 Conn=wye kW= 5.834834092304980    pf = 0.87 Vminpu = 0.88 
New Load.2000415A0b phases=1 Bus1=SX2000415A.2 kV=.120 Status=variable Model=5 Conn=wye kW= 4.938749283479238    pf = 0.87 Vminpu = 0.88 

New Load.2000702B0a phases=1 Bus1=SX2000702B.1 kV=.120 Status=variable Model=5 Conn=wye kW= 5.823409840349803    pf = 0.87 Vminpu = 0.88 
New Load.2000702B0b phases=1 Bus1=SX2000702B.2 kV=.120 Status=variable Model=5 Conn=wye kW= 4.700369616448879    pf = 0.87 Vminpu = 0.88 
New Load.2000703B0a phases=1 Bus1=SX2000703B.1 kV=.120 Status=variable Model=5 Conn=wye kW= 5.138708794193482    pf = 0.87 Vminpu = 0.88 
New Load.2000703B0b phases=1 Bus1=SX2000703B.2 kV=.120 Status=variable Model=5 Conn=wye kW= 4.398752389429358    pf = 0.87 Vminpu = 0.88 
New Load.2000704B0a phases=1 Bus1=SX2000704B.1 kV=.120 Status=variable Model=5 Conn=wye kW= 6.834929384729734    pf = 0.87 Vminpu = 0.88 
New Load.2000704B0b phases=1 Bus1=SX2000704B.2 kV=.120 Status=variable Model=5 Conn=wye kW= 3.389374738563587    pf = 0.87 Vminpu = 0.88 
New Load.2000705B0a phases=1 Bus1=SX2000705B.1 kV=.120 Status=variable Model=5 Conn=wye kW= 5.293848983479238    pf = 0.87 Vminpu = 0.88 
New Load.2000705B0b phases=1 Bus1=SX2000705B.2 kV=.120 Status=variable Model=5 Conn=wye kW= 4.378627362837294    pf = 0.87 Vminpu = 0.88 
New Load.2000706B0a phases=1 Bus1=SX2000706B.1 kV=.120 Status=variable Model=5 Conn=wye kW= 5.398749238729834    pf = 0.87 Vminpu = 0.88 
New Load.2000706B0b phases=1 Bus1=SX2000706B.2 kV=.120 Status=variable Model=5 Conn=wye kW= 6.387492384793842    pf = 0.87 Vminpu = 0.88 
New Load.2000707B0a phases=1 Bus1=SX2000707B.1 kV=.120 Status=variable Model=5 Conn=wye kW= 6.546303835511208    pf = 0.87 Vminpu = 0.88 
New Load.2000707B0b phases=1 Bus1=SX2000707B.2 kV=.120 Status=variable Model=5 Conn=wye kW= 3.348753857398232    pf = 0.87 Vminpu = 0.88 
New Load.2000708B0a phases=1 Bus1=SX2000708B.1 kV=.120 Status=variable Model=5 Conn=wye kW= 7.834738274328929    pf = 0.87 Vminpu = 0.88 
New Load.2000708B0b phases=1 Bus1=SX2000708B.2 kV=.120 Status=variable Model=5 Conn=wye kW= 4.385970349043587    pf = 0.87 Vminpu = 0.88 
New Load.2000709B0a phases=1 Bus1=SX2000709B.1 kV=.120 Status=variable Model=5 Conn=wye kW= 4.013985705703537    pf = 0.87 Vminpu = 0.88 
New Load.2000709B0b phases=1 Bus1=SX2000709B.2 kV=.120 Status=variable Model=5 Conn=wye kW= 4.700369616448879    pf = 0.87 Vminpu = 0.88 
New Load.2000710B0a phases=1 Bus1=SX2000710B.1 kV=.120 Status=variable Model=5 Conn=wye kW= 5.878949634021482    pf = 0.87 Vminpu = 0.88 
New Load.2000710B0b phases=1 Bus1=SX2000710B.2 kV=.120 Status=variable Model=5 Conn=wye kW= 4.573057284750734    pf = 0.87 Vminpu = 0.88 
New Load.2000711B0a phases=1 Bus1=SX2000711B.1 kV=.120 Status=variable Model=5 Conn=wye kW= 2.942587389572932    pf = 0.87 Vminpu = 0.88 
New Load.2000711B0b phases=1 Bus1=SX2000711B.2 kV=.120 Status=variable Model=5 Conn=wye kW= 4.098457923749823    pf = 0.87 Vminpu = 0.88 
New Load.2000712B0a phases=1 Bus1=SX2000712B.1 kV=.120 Status=variable Model=5 Conn=wye kW= 6.809475938759285    pf = 0.87 Vminpu = 0.88 
New Load.2000712B0b phases=1 Bus1=SX2000712B.2 kV=.120 Status=variable Model=5 Conn=wye kW= 4.389792834728029    pf = 0.87 Vminpu = 0.88 
New Load.2000713B0a phases=1 Bus1=SX2000713B.1 kV=.120 Status=variable Model=5 Conn=wye kW= 5.931485793329823    pf = 0.87 Vminpu = 0.88 
New Load.2000713B0b phases=1 Bus1=SX2000713B.2 kV=.120 Status=variable Model=5 Conn=wye kW= 6.847594798472942    pf = 0.87 Vminpu = 0.88 
New Load.2000714B0a phases=1 Bus1=SX2000714B.1 kV=.120 Status=variable Model=5 Conn=wye kW= 4.348019830923220    pf = 0.87 Vminpu = 0.88 
New Load.2000714B0b phases=1 Bus1=SX2000714B.2 kV=.120 Status=variable Model=5 Conn=wye kW= 4.700369616448879    pf = 0.87 Vminpu = 0.88 
New Load.2000715B0a phases=1 Bus1=SX2000715B.1 kV=.120 Status=variable Model=5 Conn=wye kW= 6.546303835511208    pf = 0.87 Vminpu = 0.88 
New Load.2000715B0b phases=1 Bus1=SX2000715B.2 kV=.120 Status=variable Model=5 Conn=wye kW= 4.700369616448879    pf = 0.87 Vminpu = 0.88 

New Load.2000902C0a phases=1 Bus1=SX2000902C.1 kV=.120 Status=variable Model=5 Conn=wye kW= 6.546303835511208    pf = 0.87 Vminpu = 0.88 
New Load.2000902C0b phases=1 Bus1=SX2000902C.2 kV=.120 Status=variable Model=5 Conn=wye kW= 4.700369616448879    pf = 0.87 Vminpu = 0.88 
New Load.2000903C0a phases=1 Bus1=SX2000903C.1 kV=.120 Status=variable Model=5 Conn=wye kW= 5.138708794193482    pf = 0.87 Vminpu = 0.88 
New Load.2000903C0b phases=1 Bus1=SX2000903C.2 kV=.120 Status=variable Model=5 Conn=wye kW= 7.423893890875923    pf = 0.87 Vminpu = 0.88 
New Load.2000904C0a phases=1 Bus1=SX2000904C.1 kV=.120 Status=variable Model=5 Conn=wye kW= 6.280734597341853    pf = 0.87 Vminpu = 0.88 
New Load.2000904C0b phases=1 Bus1=SX2000904C.2 kV=.120 Status=variable Model=5 Conn=wye kW= 3.428793094879453    pf = 0.87 Vminpu = 0.88 
New Load.2000905C0a phases=1 Bus1=SX2000905C.1 kV=.120 Status=variable Model=5 Conn=wye kW= 6.546303835511208    pf = 0.87 Vminpu = 0.88 
New Load.2000905C0b phases=1 Bus1=SX2000905C.2 kV=.120 Status=variable Model=5 Conn=wye kW= 4.700369616448879    pf = 0.87 Vminpu = 0.88 
New Load.2000906C0a phases=1 Bus1=SX2000906C.1 kV=.120 Status=variable Model=5 Conn=wye kW= 6.546303835511208    pf = 0.87 Vminpu = 0.88 
New Load.2000906C0b phases=1 Bus1=SX2000906C.2 kV=.120 Status=variable Model=5 Conn=wye kW= 4.700369616448879    pf = 0.87 Vminpu = 0.88 
New Load.2000907C0a phases=1 Bus1=SX2000907C.1 kV=.120 Status=variable Model=5 Conn=wye kW= 6.546303835511208    pf = 0.87 Vminpu = 0.88 
New Load.2000907C0b phases=1 Bus1=SX2000907C.2 kV=.120 Status=variable Model=5 Conn=wye kW= 4.700369616448879    pf = 0.87 Vminpu = 0.88 
New Load.2000908C0a phases=1 Bus1=SX2000908C.1 kV=.120 Status=variable Model=5 Conn=wye kW= 6.546303835511208    pf = 0.87 Vminpu = 0.88 
New Load.2000908C0b phases=1 Bus1=SX2000908C.2 kV=.120 Status=variable Model=5 Conn=wye kW= 4.700369616448879    pf = 0.87 Vminpu = 0.88 
New Load.2000909C0a phases=1 Bus1=SX2000909C.1 kV=.120 Status=variable Model=5 Conn=wye kW= 6.546303835511208    pf = 0.87 Vminpu = 0.88 
New Load.2000909C0b phases=1 Bus1=SX2000909C.2 kV=.120 Status=variable Model=5 Conn=wye kW= 4.700369616448879    pf = 0.87 Vminpu = 0.88 
New Load.2000910C0a phases=1 Bus1=SX2000910C.1 kV=.120 Status=variable Model=5 Conn=wye kW= 6.546303835511208    pf = 0.87 Vminpu = 0.88 
New Load.2000910C0b phases=1 Bus1=SX2000910C.2 kV=.120 Status=variable Model=5 Conn=wye kW= 4.700369616448879    pf = 0.87 Vminpu = 0.88 
New Load.2000911C0a phases=1 Bus1=SX2000911C.1 kV=.120 Status=variable Model=5 Conn=wye kW= 6.546303835511208    pf = 0.87 Vminpu = 0.88 
New Load.2000911C0b phases=1 Bus1=SX2000911C.2 kV=.120 Status=variable Model=5 Conn=wye kW= 4.700369616448879    pf = 0.87 Vminpu = 0.88 
New Load.2000912C0a phases=1 Bus1=SX2000912C.1 kV=.120 Status=variable Model=5 Conn=wye kW= 6.546303835511208    pf = 0.87 Vminpu = 0.88 
New Load.2000912C0b phases=1 Bus1=SX2000912C.2 kV=.120 Status=variable Model=5 Conn=wye kW= 4.700369616448879    pf = 0.87 Vminpu = 0.88 
New Load.2000913C0a phases=1 Bus1=SX2000913C.1 kV=.120 Status=variable Model=5 Conn=wye kW= 6.546303835511208    pf = 0.87 Vminpu = 0.88 
New Load.2000913C0b phases=1 Bus1=SX2000913C.2 kV=.120 Status=variable Model=5 Conn=wye kW= 4.700369616448879    pf = 0.87 Vminpu = 0.88 
New Load.2000914C0a phases=1 Bus1=SX2000914C.1 kV=.120 Status=variable Model=5 Conn=wye kW= 6.546303835511208    pf = 0.87 Vminpu = 0.88 
New Load.2000914C0b phases=1 Bus1=SX2000914C.2 kV=.120 Status=variable Model=5 Conn=wye kW= 4.700369616448879    pf = 0.87 Vminpu = 0.88 
New Load.2000915C0a phases=1 Bus1=SX2000915C.1 kV=.120 Status=variable Model=5 Conn=wye kW= 6.546303835511208    pf = 0.87 Vminpu = 0.88 
New Load.2000915C0b phases=1 Bus1=SX2000915C.2 kV=.120 Status=variable Model=5 Conn=wye kW= 4.700369616448879    pf = 0.87 Vminpu = 0.88 

New Load.2001002B0a phases=1 Bus1=SX2001002B.1 kV=.120 Status=variable Model=5 Conn=wye kW= 6.546303835511208    pf = 0.87 Vminpu = 0.88 
New Load.2001002B0b phases=1 Bus1=SX2001002B.2 kV=.120 Status=variable Model=5 Conn=wye kW= 4.700369616448879    pf = 0.87 Vminpu = 0.88 
New Load.2001003B0a phases=1 Bus1=SX2001003B.1 kV=.120 Status=variable Model=5 Conn=wye kW= 5.138708794193482    pf = 0.87 Vminpu = 0.88 
New Load.2001003B0b phases=1 Bus1=SX2001003B.2 kV=.120 Status=variable Model=5 Conn=wye kW= 7.423893890875923    pf = 0.87 Vminpu = 0.88 
New Load.2001004B0a phases=1 Bus1=SX2001004B.1 kV=.120 Status=variable Model=5 Conn=wye kW= 6.280734597341853    pf = 0.87 Vminpu = 0.88 
New Load.2001004B0b phases=1 Bus1=SX2001004B.2 kV=.120 Status=variable Model=5 Conn=wye kW= 3.428793094879453    pf = 0.87 Vminpu = 0.88 
New Load.2001005B0a phases=1 Bus1=SX2001005B.1 kV=.120 Status=variable Model=5 Conn=wye kW= 6.889452893014895    pf = 0.87 Vminpu = 0.88 
New Load.2001005B0b phases=1 Bus1=SX2001005B.2 kV=.120 Status=variable Model=5 Conn=wye kW= 4.190873243490341    pf = 0.87 Vminpu = 0.88 
New Load.2001006B0a phases=1 Bus1=SX2001006B.1 kV=.120 Status=variable Model=5 Conn=wye kW= 5.370491101431493    pf = 0.87 Vminpu = 0.88 
New Load.2001006B0b phases=1 Bus1=SX2001006B.2 kV=.120 Status=variable Model=5 Conn=wye kW= 4.387454300943623    pf = 0.87 Vminpu = 0.88 
New Load.2001007B0a phases=1 Bus1=SX2001007B.1 kV=.120 Status=variable Model=5 Conn=wye kW= 6.134785850184735    pf = 0.87 Vminpu = 0.88 
New Load.2001007B0b phases=1 Bus1=SX2001007B.2 kV=.120 Status=variable Model=5 Conn=wye kW= 3.234098573734892    pf = 0.87 Vminpu = 0.88 
New Load.2001008B0a phases=1 Bus1=SX2001008B.1 kV=.120 Status=variable Model=5 Conn=wye kW= 5.409857903842939    pf = 0.87 Vminpu = 0.88 
New Load.2001008B0b phases=1 Bus1=SX2001008B.2 kV=.120 Status=variable Model=5 Conn=wye kW= 7.308480397203234    pf = 0.87 Vminpu = 0.88 
New Load.2001009B0a phases=1 Bus1=SX2001009B.1 kV=.120 Status=variable Model=5 Conn=wye kW= 8.489702308947892    pf = 0.87 Vminpu = 0.88 
New Load.2001009B0b phases=1 Bus1=SX2001009B.2 kV=.120 Status=variable Model=5 Conn=wye kW= 5.480939042093471    pf = 0.87 Vminpu = 0.88 
New Load.2001010B0a phases=1 Bus1=SX2001010B.1 kV=.120 Status=variable Model=5 Conn=wye kW= 9.409835092971982    pf = 0.87 Vminpu = 0.88 
New Load.2001010B0b phases=1 Bus1=SX2001010B.2 kV=.120 Status=variable Model=5 Conn=wye kW= 7.489379374913491    pf = 0.87 Vminpu = 0.88 
New Load.2001011B0a phases=1 Bus1=SX2001011B.1 kV=.120 Status=variable Model=5 Conn=wye kW= 4.389741947928347    pf = 0.87 Vminpu = 0.88 
New Load.2001011B0b phases=1 Bus1=SX2001011B.2 kV=.120 Status=variable Model=5 Conn=wye kW= 3.084957037902323    pf = 0.87 Vminpu = 0.88 
New Load.2001012B0a phases=1 Bus1=SX2001012B.1 kV=.120 Status=variable Model=5 Conn=wye kW= 6.384798347120899    pf = 0.87 Vminpu = 0.88 
New Load.2001012B0b phases=1 Bus1=SX2001012B.2 kV=.120 Status=variable Model=5 Conn=wye kW= 7.374628743298782    pf = 0.87 Vminpu = 0.88 
New Load.2001013B0a phases=1 Bus1=SX2001013B.1 kV=.120 Status=variable Model=5 Conn=wye kW= 8.327328425678234    pf = 0.87 Vminpu = 0.88 
New Load.2001013B0b phases=1 Bus1=SX2001013B.2 kV=.120 Status=variable Model=5 Conn=wye kW= 9.237846237846179    pf = 0.87 Vminpu = 0.88 
New Load.2001014B0a phases=1 Bus1=SX2001014B.1 kV=.120 Status=variable Model=5 Conn=wye kW= 14.47958934798347    pf = 0.87 Vminpu = 0.88 
New Load.2001014B0b phases=1 Bus1=SX2001014B.2 kV=.120 Status=variable Model=5 Conn=wye kW= 13.84723094728347    pf = 0.87 Vminpu = 0.88 
New Load.2001015B0a phases=1 Bus1=SX2001015B.1 kV=.120 Status=variable Model=5 Conn=wye kW= 12.86739085729232    pf = 0.87 Vminpu = 0.88 
New Load.2001015B0b phases=1 Bus1=SX2001015B.2 kV=.120 Status=variable Model=5 Conn=wye kW= 11.34794729873422    pf = 0.87 Vminpu = 0.88 

New Load.2001202C0a phases=1 Bus1=SX2001202C.1 kV=.120 Status=variable Model=5 Conn=wye kW= 6.485703297093287    pf = 0.87 Vminpu = 0.88 
New Load.2001202C0b phases=1 Bus1=SX2001202C.2 kV=.120 Status=variable Model=5 Conn=wye kW= 5.938478947239847    pf = 0.87 Vminpu = 0.88 
New Load.2001203C0a phases=1 Bus1=SX2001203C.1 kV=.120 Status=variable Model=5 Conn=wye kW= 7.984723908743298    pf = 0.87 Vminpu = 0.88 
New Load.2001203C0b phases=1 Bus1=SX2001203C.2 kV=.120 Status=variable Model=5 Conn=wye kW= 8.039487509385093    pf = 0.87 Vminpu = 0.88 
New Load.2001204C0a phases=1 Bus1=SX2001204C.1 kV=.120 Status=variable Model=5 Conn=wye kW= 5.095920387409238    pf = 0.87 Vminpu = 0.88 
New Load.2001204C0b phases=1 Bus1=SX2001204C.2 kV=.120 Status=variable Model=5 Conn=wye kW= 7.849579328740932    pf = 0.87 Vminpu = 0.88 
New Load.2001205C0a phases=1 Bus1=SX2001205C.1 kV=.120 Status=variable Model=5 Conn=wye kW= 3.809345709834759    pf = 0.87 Vminpu = 0.88 
New Load.2001205C0b phases=1 Bus1=SX2001205C.2 kV=.120 Status=variable Model=5 Conn=wye kW= 4.753864743897623    pf = 0.87 Vminpu = 0.88 
New Load.2001206C0a phases=1 Bus1=SX2001206C.1 kV=.120 Status=variable Model=5 Conn=wye kW= 6.093850593532983    pf = 0.87 Vminpu = 0.88 
New Load.2001206C0b phases=1 Bus1=SX2001206C.2 kV=.120 Status=variable Model=5 Conn=wye kW= 4.437532984739750    pf = 0.87 Vminpu = 0.88 
New Load.2001207C0a phases=1 Bus1=SX2001207C.1 kV=.120 Status=variable Model=5 Conn=wye kW= 5.408909384834762    pf = 0.87 Vminpu = 0.88 
New Load.2001207C0b phases=1 Bus1=SX2001207C.2 kV=.120 Status=variable Model=5 Conn=wye kW= 3.437538734756334    pf = 0.87 Vminpu = 0.88 
New Load.2001208C0a phases=1 Bus1=SX2001208C.1 kV=.120 Status=variable Model=5 Conn=wye kW= 6.387523947874983    pf = 0.87 Vminpu = 0.88 
New Load.2001208C0b phases=1 Bus1=SX2001208C.2 kV=.120 Status=variable Model=5 Conn=wye kW= 5.495872893472938    pf = 0.87 Vminpu = 0.88 
New Load.2001209C0a phases=1 Bus1=SX2001209C.1 kV=.120 Status=variable Model=5 Conn=wye kW= 7.945793284792384    pf = 0.87 Vminpu = 0.88 
New Load.2001209C0b phases=1 Bus1=SX2001209C.2 kV=.120 Status=variable Model=5 Conn=wye kW= 5.984573897983233    pf = 0.87 Vminpu = 0.88 
New Load.2001210C0a phases=1 Bus1=SX2001210C.1 kV=.120 Status=variable Model=5 Conn=wye kW= 3.489573895793287    pf = 0.87 Vminpu = 0.88 
New Load.2001210C0b phases=1 Bus1=SX2001210C.2 kV=.120 Status=variable Model=5 Conn=wye kW= 9.948573878342738    pf = 0.87 Vminpu = 0.88 
New Load.2001211C0a phases=1 Bus1=SX2001211C.1 kV=.120 Status=variable Model=5 Conn=wye kW= 10.98573984749832    pf = 0.87 Vminpu = 0.88 
New Load.2001211C0b phases=1 Bus1=SX2001211C.2 kV=.120 Status=variable Model=5 Conn=wye kW= 12.43058092384023    pf = 0.87 Vminpu = 0.88 
New Load.2001212C0a phases=1 Bus1=SX2001212C.1 kV=.120 Status=variable Model=5 Conn=wye kW= 9.485304823894906    pf = 0.87 Vminpu = 0.88 
New Load.2001212C0b phases=1 Bus1=SX2001212C.2 kV=.120 Status=variable Model=5 Conn=wye kW= 8.394820394823479    pf = 0.87 Vminpu = 0.88 
New Load.2001213C0a phases=1 Bus1=SX2001213C.1 kV=.120 Status=variable Model=5 Conn=wye kW= 9.498509384093842    pf = 0.87 Vminpu = 0.88 
New Load.2001213C0b phases=1 Bus1=SX2001213C.2 kV=.120 Status=variable Model=5 Conn=wye kW= 8.580932497284983    pf = 0.87 Vminpu = 0.88 
New Load.2001214C0a phases=1 Bus1=SX2001214C.1 kV=.120 Status=variable Model=5 Conn=wye kW= 7.384798237492832    pf = 0.87 Vminpu = 0.88 
New Load.2001214C0b phases=1 Bus1=SX2001214C.2 kV=.120 Status=variable Model=5 Conn=wye kW= 9.494852049738429    pf = 0.87 Vminpu = 0.88 
New Load.2001215C0a phases=1 Bus1=SX2001215C.1 kV=.120 Status=variable Model=5 Conn=wye kW= 10.34985723084243    pf = 0.87 Vminpu = 0.88 
New Load.2001215C0b phases=1 Bus1=SX2001215C.2 kV=.120 Status=variable Model=5 Conn=wye kW= 11.03495983473482    pf = 0.87 Vminpu = 0.88 

New Load.2001302A0a phases=1 Bus1=SX2001302A.1 kV=.120 Status=variable Model=5 Conn=wye kW= 4.329874298374233    pf = 0.87 Vminpu = 0.88 
New Load.2001302A0b phases=1 Bus1=SX2001302A.2 kV=.120 Status=variable Model=5 Conn=wye kW= 4.489572837423827    pf = 0.87 Vminpu = 0.88 
New Load.2001303A0a phases=1 Bus1=SX2001303A.1 kV=.120 Status=variable Model=5 Conn=wye kW= 5.493873274828949    pf = 0.87 Vminpu = 0.88 
New Load.2001303A0b phases=1 Bus1=SX2001303A.2 kV=.120 Status=variable Model=5 Conn=wye kW= 7.423893890875923    pf = 0.87 Vminpu = 0.88 
New Load.2001304A0a phases=1 Bus1=SX2001304A.1 kV=.120 Status=variable Model=5 Conn=wye kW= 6.280734597341853    pf = 0.87 Vminpu = 0.88 
New Load.2001304A0b phases=1 Bus1=SX2001304A.2 kV=.120 Status=variable Model=5 Conn=wye kW= 3.344850329482374    pf = 0.87 Vminpu = 0.88 
New Load.2001305A0a phases=1 Bus1=SX2001305A.1 kV=.120 Status=variable Model=5 Conn=wye kW= 6.546303835511208    pf = 0.87 Vminpu = 0.88 
New Load.2001305A0b phases=1 Bus1=SX2001305A.2 kV=.120 Status=variable Model=5 Conn=wye kW= 4.309458203843092    pf = 0.87 Vminpu = 0.88 
New Load.2001306A0a phases=1 Bus1=SX2001306A.1 kV=.120 Status=variable Model=5 Conn=wye kW= 5.983457032947289    pf = 0.87 Vminpu = 0.88 
New Load.2001306A0b phases=1 Bus1=SX2001306A.2 kV=.120 Status=variable Model=5 Conn=wye kW= 3.489342937532897    pf = 0.87 Vminpu = 0.88 
New Load.2001307A0a phases=1 Bus1=SX2001307A.1 kV=.120 Status=variable Model=5 Conn=wye kW= 6.495893089534750    pf = 0.87 Vminpu = 0.88 
New Load.2001307A0b phases=1 Bus1=SX2001307A.2 kV=.120 Status=variable Model=5 Conn=wye kW= 7.485357309582353    pf = 0.87 Vminpu = 0.88 
New Load.2001308A0a phases=1 Bus1=SX2001308A.1 kV=.120 Status=variable Model=5 Conn=wye kW= 6.546303835511208    pf = 0.87 Vminpu = 0.88 
New Load.2001308A0b phases=1 Bus1=SX2001308A.2 kV=.120 Status=variable Model=5 Conn=wye kW= 8.095038753248930    pf = 0.87 Vminpu = 0.88 
New Load.2001309A0a phases=1 Bus1=SX2001309A.1 kV=.120 Status=variable Model=5 Conn=wye kW= 3.546303835511208    pf = 0.87 Vminpu = 0.88 
New Load.2001309A0b phases=1 Bus1=SX2001309A.2 kV=.120 Status=variable Model=5 Conn=wye kW= 4.700369616448879    pf = 0.87 Vminpu = 0.88 
New Load.2001310A0a phases=1 Bus1=SX2001310A.1 kV=.120 Status=variable Model=5 Conn=wye kW= 8.849852845709450    pf = 0.87 Vminpu = 0.88 
New Load.2001310A0b phases=1 Bus1=SX2001310A.2 kV=.120 Status=variable Model=5 Conn=wye kW= 9.298342894398232    pf = 0.87 Vminpu = 0.88 
New Load.2001311A0a phases=1 Bus1=SX2001311A.1 kV=.120 Status=variable Model=5 Conn=wye kW= 8.094802348402394    pf = 0.87 Vminpu = 0.88 
New Load.2001311A0b phases=1 Bus1=SX2001311A.2 kV=.120 Status=variable Model=5 Conn=wye kW= 7.948579328738263    pf = 0.87 Vminpu = 0.88 
New Load.2001312A0a phases=1 Bus1=SX2001312A.1 kV=.120 Status=variable Model=5 Conn=wye kW= 6.498203480293423    pf = 0.87 Vminpu = 0.88 
New Load.2001312A0b phases=1 Bus1=SX2001312A.2 kV=.120 Status=variable Model=5 Conn=wye kW= 8.039489204824822    pf = 0.87 Vminpu = 0.88 
New Load.2001313A0a phases=1 Bus1=SX2001313A.1 kV=.120 Status=variable Model=5 Conn=wye kW= 9.984798234923832    pf = 0.87 Vminpu = 0.88 
New Load.2001313A0b phases=1 Bus1=SX2001313A.2 kV=.120 Status=variable Model=5 Conn=wye kW= 12.38702948230230    pf = 0.87 Vminpu = 0.88 
New Load.2001314A0a phases=1 Bus1=SX2001314A.1 kV=.120 Status=variable Model=5 Conn=wye kW= 11.49509842474987    pf = 0.87 Vminpu = 0.88 
New Load.2001314A0b phases=1 Bus1=SX2001314A.2 kV=.120 Status=variable Model=5 Conn=wye kW= 9.948575293874928    pf = 0.87 Vminpu = 0.88 
New Load.2001315A0a phases=1 Bus1=SX2001315A.1 kV=.120 Status=variable Model=5 Conn=wye kW= 10.03588957985267    pf = 0.87 Vminpu = 0.88 
New Load.2001315A0b phases=1 Bus1=SX2001315A.2 kV=.120 Status=variable Model=5 Conn=wye kW= 9.894537452398293    pf = 0.87 Vminpu = 0.88 

New Load.2001400C0a phases=1 Bus1=SX2001400C.1 kV=.120 Status=variable Model=5 Conn=wye kW= 18.81112879438927    pf = 0.87 Vminpu = 0.88 
New Load.2001400C0b phases=1 Bus1=SX2001400C.2 kV=.120 Status=variable Model=5 Conn=wye kW= 21.70889248794258    pf = 0.87 Vminpu = 0.88 